[General]
seed-0-mt=532569

[Tiktok1]
network = Tiktok1

[Tiktok2]
network = Tiktok2

[Tiktok3]
network = Tiktok3

[Tiktok4]
network = Tiktok4
Tiktok4.tok.limit = 5

[Tiktok5]
network = Tiktok5
**.limit = 5

[Tiktok6]
network = Tiktok6

[Tiktok7]
network = Tiktok7
Tiktok7.tik.delayTime = exponential(3s)
Tiktok7.tok.delayTime = truncnormal(3s, 1s)

[Tiktok8]
network = Tiktok8

[Tiktok9]
network = Tiktok9

[Tiktok10]
network = Tiktok10

[Tiktok11]
network = Tiktok11

[Tiktok12]
network = Tiktok12

[Tiktok13]
network = Tiktok13

[Tiktok14]
network = Tiktok14

[Tiktok15]
network = Tiktok15
record-eventlog = true

[Tiktok16]
network = Tiktok16
**.tik[1].hopcount.result-recording-modes = +histogram

[Tiktok17]
network = Tiktok17
**.tik[0..2].hopcount.result-recording-modes = -vector

[Tiktok18]
network = Tiktok18
sim-time-limit = 250000s
**.tik[*].hopcount.result-recording-modes = +vector,+histogram
*.numCentralNodes = ${N=2..100 step 2}
repeat = 4
